variable totLength equal 1121.3409
variable dispDist equal "v_totLength*v_dispRatio/2"
# Displacement distance is divided by two because I want to displace both the bow and stern atoms of each chain.

variable seed equal 1
units real
boundary p p p

atom_style molecular

region main block -2500 2500 -2500 2500 -2500 2500
create_box 42 main bond/types 41 angle/types 40 extra/bond/per/atom 2 extra/angle/per/atom 3 extra/special/per/atom 6
Created orthogonal box = (-2500 -2500 -2500) to (2500 2500 2500)
region insertionVolume block -1500 150 -1500 1500 -1500 1500

molecule postMinAlpha postMinAlpha.txt
Read molecule template postMinAlpha:
  1 molecules
  0 fragments
  42 atoms with max type 42
  41 bonds with max type 41
  40 angles with max type 40
  0 dihedrals with max type 0
  0 impropers with max type 0
bond_style harmonic
angle_style harmonic
pair_style none

create_atoms 0 random 20 1 insertionVolume mol postMinAlpha 1 rotate 0 0 0 1
Created 840 atoms

# Load in Alpha Spectrin Parameters:
read_data AlphaCoeffs.data add merge
Reading data file ...
  orthogonal box = (-2500 -2500 -2500) to (2500 2500 2500)
Finding 1-2 1-3 1-4 neighbors ...
     2 = max # of 1-2 neighbors
     2 = max # of 1-3 neighbors
     4 = max # of 1-4 neighbors
    13 = max # of special neighbors

# Verify that parameters were assigned as intended:

group firstAtoms type 1
20 atoms in group firstAtoms
group lastAtoms type 42
20 atoms in group lastAtoms
displace_atoms firstAtoms move 0  280.335225 0
Displacing atoms ...
displace_atoms lastAtoms move  0 -280.335225 0
Displacing atoms ...

group internals type 2:41
800 atoms in group internals
group endpoints subtract all internals
40 atoms in group endpoints

# This is keep the endpoints stationary during minimization
fix stationary endpoints setforce 0.0 0.0 0.0
# Minimize the initial structure for initializing velocities
minimize 0.0 1.0e-9 100000 100000
Step          Temp          E_pair         E_mol          TotEng         Press
0   0              0              1964630.1      1964630.1     -0.86992542
Loop time of 1.30558 on 1 procs for 6886 steps with 840 atoms

Minimization stats:
  Stopping criterion = force tolerance
  Energy initial, next-to-last, final =
  Force two-norm initial, final = 3998.8755 9.4043486e-10
  Force max component initial, final = 882.82735 1.5813307e-10
  Final line search alpha, max atom move = 1 1.5813307e-10
  Iterations, force evaluations = 6886 8826

# Remove the stationary fix now the minimization is done
unfix stationary

reset_timestep 0

velocity internals create 310.0 1 dist gaussian

timestep 100
fix integrate internals nvt temp 310.0 310.0 $(25.0*dt)
fix integrate internals nvt temp 310.0 310.0 2500

compute internalsTemp internals temp
thermo 100
thermo_style custom step c_internalsTemp epair emol etotal press

# dump_modify coordsDump time yes sort id
# dump_modify thermoDump time yes thermo yes sort id

# dump_modify forceDump time yes thermo yes sort id

compute molChunks all chunk/atom molecule

group bowAtoms type 1
20 atoms in group bowAtoms
group sternAtoms type 42
20 atoms in group sternAtoms

compute bowComp bowAtoms property/atom fy
compute sternComp sternAtoms property/atom fy

run 0
Step     c_internalsTemp     E_pair         E_mol          TotEng         Press
0   310            0              1.2512904e-18  738.31684      0.00027000115
Loop time of 1e-06 on 1 procs for 0 steps with 840 atoms

velocity internals scale 310.0

fix printTemp internals print 100 "$(step) $(c_internalsTemp)" file out/internalsTemp.0.5.txt

variable netTension atom "c_bowComp - c_sternComp"

# Calculate, for every molecule individually, the net tension
fix tensions all ave/chunk 100 1 100 molChunks v_netTension norm none file out/tensions.0.5.txt

# Calculate the ensemble average of the net tensions
variable ensAvg equal ave(f_tensions[2])

# Time-average the ensemble average of the net tensions
# We will average over the 100 most recent timesteps in increments of 100 steps
fix timeAvg all ave/time 100 100 10000 v_ensAvg file out/timeAvg_tensions.0.5.txt

run 100000
0 309.99999999999994316
Step     c_internalsTemp     E_pair         E_mol          TotEng         Press
0   310            0              1.2512904e-18  738.31684      0.00027000115
100 308.29694215302180282
200 302.57325149995006086
300 319.62070112897799845
400 309.1383649509336351
500 320.18874581058997819
600 335.63129681764786483
700 303.77486813314823166
800 305.10222532528302963
900 299.7202012744583044
1000 316.46911510305523052
1100 314.34181862220225412
1200 304.32090804708337828
1300 294.75642464619159
1400 313.43068079383795066
1500 313.1440472333919729
1600 298.2384168606398589
1700 305.47867496776285634
1800 314.61613454853159055
1900 309.36749653649866332
2000 311.29552863938971541
2100 320.61496215641653862
2200 322.53045160753760001
2300 312.8424582175133537
2400 313.04327188058562115
2500 319.85134958568875163
2600 306.89831822271963802
2700 320.04064275173413989
2800 298.36709360113002276
2900 296.54149103122932729
3000 313.35760604959693865
3100 317.32852285708116824
3200 317.23968679538717197
3300 302.68093052716415059
3400 301.00324505037502831
3500 309.64155357876097696
3600 303.7770694764734003
3700 295.47636879230105933
3800 317.94569450085879225
3900 289.10532865094148747
4000 304.11260412931540031
4100 316.60630890519269087
4200 318.39103159467708792
4300 315.85107149062321241
4400 308.17839325799064909
4500 315.26286032131019965
4600 314.45068961748893344
4700 308.58328015717683002
4800 296.78111215375054144
4900 311.68413244713337917
5000 315.15547861734762591
5100 315.43799822709598857
5200 306.11734481929721596
5300 290.24245906646399362
5400 304.68223930018632473
5500 302.5520251906999647
5600 301.36296755276566728
5700 308.11060354279322837
5800 304.10411130925967882
5900 302.91217799448588721
6000 304.89573913536474947
6100 313.39609744278618564
6200 327.90654422311905591
6300 314.56258403479273511
6400 306.86108440163980049
6500 321.62638430532678058
6600 314.94892358066721272
6700 314.09396478719628476
6800 312.08533050285575428
6900 296.49703997310740533
7000 300.66590345924566918
7100 317.38746514670674514
7200 310.59440057737140251
7300 310.63253569083775574
7400 313.98021201175703254
7500 316.54195167888434526
7600 312.55425794107293314
7700 306.95416519329336325
7800 306.91494600053408703
7900 308.8927915035549745
8000 306.93205449018751096
8100 308.36500054932173498
8200 302.05751583683394301
8300 284.89033014450836845
8400 319.59610040937900521
8500 317.41498574020096157
8600 309.8113798518522799
8700 318.52013517370266982
8800 313.38819470347442575
8900 307.79194272664585696
9000 304.33461659794176057
9100 305.60158912133965714
9200 309.40023953565184911
9300 311.31769298199867535
9400 318.3866799303889934
9500 314.87924173029188069
9600 321.95728549602358726
9700 319.4307636699915065
9800 304.0354800077635673
9900 292.63890103252600738
10000 306.33105742776342595
10100 318.93084073326605221
10200 319.80149572998811891
10300 314.47444604575787253
10400 304.55730608761251688
10500 297.58119266167557271
10600 299.43708531509707882
10700 311.62304439346877416
10800 311.07083410923576139
10900 310.61427162958722192
11000 307.23950737959114576
11100 310.74556527227991864
11200 320.01623424236959181
11300 321.11278715447309651
11400 311.36127251967434404
11500 320.16154097468444206
11600 315.63076344639836179
11700 311.39605732078200617
11800 318.20418077087953179
11900 316.3034250065502988
12000 298.2006862782646408
12100 326.1522198036071245
12200 323.86214747848578099
12300 294.67187013702755394
12400 307.98637514553291794
12500 313.5975781335482111
12600 311.07969199624216117
12700 306.78847852342602209
12800 298.08596017090991381
12900 296.70768759535673098
13000 299.95248206049359396
13100 311.01147891087902053
13200 321.28071949560177245
13300 297.520501432904382
13400 302.78824850312122408
13500 303.88167136246858036
13600 316.76741087760348137
13700 322.40088392882427115
13800 310.67398917442511674
13900 305.50081232585944235
14000 317.29499837505505866
14100 318.97152267897502043
14200 313.71107899376738715
14300 311.97070797935452902
14400 301.05576395496927944
14500 302.48268389785988575
14600 311.19330659709851261
14700 309.94502447807309409
14800 322.94975126494580309
14900 309.6466068674326948
15000 302.44834225343964818
15100 303.35233805993783562
15200 320.56309578220054846
15300 318.90021982523632005
15400 294.36733895739502032
15500 310.42208007127612746
15600 310.92676880554057561
15700 327.2659179933575615
15800 313.7704419112945402
15900 310.01634308233792581
16000 317.1546658061553785
16100 300.87359104326236547
16200 320.36758709509314258
16300 304.60908297153144986
16400 303.80617476679941547
16500 298.17927928065199694
16600 307.52942546707998872
16700 316.95699584613475963
16800 295.7107477324649949
16900 308.48630530238460778
17000 309.16922645909068024
17100 323.45635500976641197
17200 323.49875020834446104
17300 312.10333394075860269
17400 302.58856007179105063
17500 313.37933008720324324
17600 313.38947309478726311
17700 300.08240068063042827
17800 296.79771167201897697
17900 314.9907872336372634
18000 311.10309163177424807
18100 319.24754342151294395
18200 313.99962026721289021
18300 294.1125648399093393
18400 312.56773347495351345
18500 320.00491519981716237
18600 293.77492041313217896
18700 309.17010709806964996
18800 316.26114570936283599
18900 285.60371315115565949
19000 310.64228515154661636
19100 309.95731743427603533
19200 289.01723703031183277
19300 302.7880502990134346
19400 291.70739030446236484
19500 312.67857415421707401
19600 301.54217107565841616
19700 300.54354901262684052
19800 309.51437571384559533
19900 307.00212507975487597
20000 325.19509296313259483
20100 309.84588192415020558
20200 324.50377228044771982
20300 325.4574004459726666
20400 311.78612890174872518
20500 318.89730229961338637
20600 324.22154120010270617
20700 302.81045927465106615
20800 301.64614924562226861
20900 310.8367004590045326
21000 324.91792858082345674
21100 308.22429403006105986
21200 317.72958757955171905
21300 308.03600983243097744
21400 298.78410194289278934
21500 309.77255873697788502
21600 318.11424899502594599
21700 312.40766693327515213
21800 297.98118685728087485
21900 309.6401495659239913
22000 318.80143447479724728
22100 306.70339483434310068
22200 322.01806255891347064
22300 317.59125189832343494
22400 302.34474454660954734
22500 305.34839356288551926
22600 310.5939505809876664
22700 305.54329920606352289
22800 301.15018982829707284
22900 305.72926580729955504
23000 308.3962797610683424
23100 296.4510655345535497
23200 301.49869196597848031
23300 317.56928203783229492
23400 310.2809753202549814
23500 310.35082473927690216
23600 323.20420933071596892
23700 298.08571976765972522
23800 310.01956965531331889
23900 300.67564215890314472
24000 291.54107379387926358
24100 288.45354491958789822
24200 339.33121834923309734
24300 302.32928989072325976
24400 302.77382041753122621
24500 309.27801963241040539
24600 317.44833579152725633
24700 314.08271075767999037
24800 305.43027542284357878
24900 303.43403443291867916
25000 311.62678399590748768
25100 321.99349298501397243
25200 307.87905349315644798
25300 311.81177288830792804
25400 319.05240909380967196
25500 307.86626270128789429
25600 317.13053804633972277
25700 302.01988740668087985
25800 305.33750837011240264
25900 304.90516448330276944
26000 303.14522830949147192
26100 317.10724427876237996
26200 309.17783790195966276
26300 317.50777801625781649
26400 310.12381519498012494
26500 292.30921992791547837
26600 314.05182552070476731
26700 310.19463287828665443
26800 306.29825280219137085
26900 300.96123501054211147
27000 313.18936000260333685
27100 302.39370372406875731
27200 316.32666257133490717
27300 321.6726667641294739
27400 327.27309305275383622
27500 312.27752706897933876
27600 307.87592829936738781
27700 310.01671484194474715
27800 314.5157880514440194
27900 312.40460848540351435
28000 297.59430177727381306
28100 304.91494636147530173
28200 309.42872649043289357
28300 313.72041193577632612
28400 312.41941316607613999
28500 314.72995832360959412
28600 325.6054413436997379
28700 318.55703700583114824
28800 297.13926788595563266
28900 321.44699670615875675
29000 304.22425821017992575
29100 304.42098720907893039
29200 311.79210815055449757
29300 313.07261972800739613
29400 307.54826956446879649
29500 297.48183179776253837
29600 305.82975469206570551
29700 312.95885328710323847
29800 323.31582728148151773
29900 317.77948745035348566
30000 311.0808048185153325
30100 301.03904683470847203
30200 305.36772537048085496
30300 331.03065957574392542
30400 321.50640082729131564
30500 302.53139725359602608
30600 309.85691617120272667
30700 311.25900419367087579
30800 299.04155653971622542
30900 315.80613794829963581
31000 299.86283797910419935
31100 308.37190660192965197
31200 297.4524950697717145
31300 308.99290312503870837
31400 299.25215176983135734
31500 297.81209255127504321
31600 302.1497962575974725
31700 306.25204252571666075
31800 324.51932343929593117
31900 304.88779139464492118
32000 321.07140014854002175
32100 305.95418451215812183
32200 313.85942421529358626
32300 300.34057527934999143
32400 298.62910702229993376
32500 318.09029553907078025
32600 314.19035883743299564
32700 299.57115619272963158
32800 307.7560171330654839
32900 295.63718007443804936
33000 311.21743197543776205
33100 319.77966165201382864
33200 318.13194388927792033
33300 311.85382132531987054
33400 293.97801617764349658
33500 301.92605593448837453
33600 314.17229166777917726
33700 306.20759179027777463
33800 310.12081974125754869
33900 302.51288064799507538
34000 309.80849181880245169
34100 317.41250743458692796
34200 293.9615936295534766
34300 302.87722847491988887
34400 312.86634008807999408
34500 328.83633518434993448
34600 306.62633224842323898
34700 314.84447975437137757
34800 310.06521728502679025
34900 317.43636656035067745
35000 300.02335900059074447
35100 297.82118443807985386
35200 313.20586866367131051
35300 299.82550068434289869
35400 288.074502094203865
35500 310.40485917581037256
35600 314.09835091883286395
35700 313.78094561654199879
35800 314.34239279951464141
35900 310.31629664292819371
36000 299.3151924645680424
36100 303.5982434564755863
36200 318.61095809973232917
36300 310.02313980543306116
36400 298.20414333731645229
36500 306.15255499506912429
36600 313.55412427129448361
36700 296.25808975743365181
36800 308.56283940618720862
36900 317.80570472334562737
37000 296.03388936816736532
37100 297.36520164627893337
37200 310.92473716152238694
37300 306.2832212342992193
37400 309.79311527407867288
37500 323.96038301172143292
37600 309.62833079423222671
37700 293.99712507057984112
37800 302.08790755724737664
37900 306.27560065077358331
38000 310.24634778715312677
38100 311.76865956254306411
38200 306.5620120884528319
38300 309.3140763358819072
38400 306.1243141738764848
38500 314.44141461714258412
38600 300.97370058961860195
38700 302.54490721541469611
38800 313.26172226835774381
38900 317.49588299809602177
39000 316.54402862576932876
39100 306.16262048611122282
39200 304.48881767940974896
39300 306.20313425829419884
39400 305.94841499082031078
39500 323.51338377691581627
39600 320.20639335384845481
39700 311.68055015767993154
39800 294.07123304795123886
39900 319.43930581364253385
40000 322.03173533231336023
40100 314.91678126349529521
40200 302.73442174594407561
40300 301.59641417298530541
40400 314.08989604395509332
40500 313.68013068748791738
40600 313.18859627492253139
40700 305.35443797030535507
40800 300.26097671935320932
40900 298.96791433739139165
41000 320.03614803411073808
41100 302.28300974207161289
41200 297.1035398926563289
41300 295.40535901592193113
41400 306.52180559736058285
41500 326.04974361374297587
41600 300.82075605411284869
41700 308.54269053591559668
41800 321.38245636421919471
41900 304.63080424742491914
42000 302.71066345109375106
42100 309.8652004889824525
42200 305.73719602806448847
42300 311.2363021529231446
42400 314.36897315862000823
42500 314.72178863695870632
42600 313.35560393045835781
42700 305.19644102017724663
42800 321.87197424967177994
42900 311.40877317174459904
43000 317.88229739813544938
43100 304.52436001147623301
43200 299.80716807388057532
43300 309.26833229683859372
43400 301.56533279591752716
43500 297.71233774677187967
43600 313.73100123294216246
43700 324.34676191639755416
43800 310.00837442948909484
43900 309.29501436337301357
44000 307.8904855980749744
44100 320.91209710583547121
44200 292.17948810466310761
44300 316.27049149419019614
44400 328.00456879197173521
44500 308.78197441456825345
44600 314.98852559755283664
44700 310.83190916178534735
44800 300.88707167418561994
44900 321.3682023071629601
45000 317.42006550059051051
45100 297.04065269342987676
45200 306.58604959513263566
45300 301.249983639151651
45400 308.6448787378394627
45500 322.45467010450926182
45600 311.04068165707514027
45700 301.85651338919944919
45800 323.12924427061807364
45900 306.99379971802807177
46000 295.97422857032546517
46100 313.72046987328866408
46200 319.99614578901707773
46300 316.71589928427999894
46400 299.03975926850733913
46500 305.60959563334137101
46600 305.7398573481633548
46700 313.82904666821684714
46800 309.33260238837993938
46900 298.5797747944172329
47000 320.60666680023808794
47100 319.98640996836292061
47200 305.97126180999669032
47300 303.33515864149694607
47400 316.13777568297132348
47500 312.04997173006910316
47600 290.40989226417462987
47700 311.97414044568279223
47800 326.60537047517084375
47900 302.72012837117711115
48000 322.3038510180368803
48100 316.66356966126835459
48200 319.53131480561478384
48300 308.21537254947696738
48400 292.05474908998655792
48500 313.23843387098287394
48600 303.59784817117349576
48700 313.83859184770852835
48800 319.20832740102764546
48900 306.22559831386530504
49000 317.45459759628693064
49100 316.89091971080881649
49200 321.51062506424403864
49300 304.682812613455269
49400 316.64333244897017039
49500 303.35745769220915236
49600 324.94555799297029353
49700 305.28336119395021342
49800 297.45748118790186254
49900 311.31368536085096821
50000 308.59775800273723689
50100 315.48906055245254265
50200 309.11843559613765819
50300 301.3823259129477492
50400 330.80622105801256794
50500 316.15462827176219207
50600 291.32777890255607645
50700 297.73009171262236805
50800 306.11001415414756366
50900 312.01673985053048455
51000 305.58606857344375385
51100 302.02857084857367909
51200 310.39471273033660736
51300 324.0849107398565252
51400 311.18146048770904599
51500 304.12326705203537358
51600 304.51975866913420532
51700 305.1365976330807257
51800 296.24257192718584975
51900 297.48231949391680473
52000 310.67734726546922275
52100 311.34511610287711392
52200 297.0585626652784299
52300 320.04552717483454671
52400 331.31779604473359768
52500 308.79081818415653515
52600 309.02484189853856833
52700 312.60369702754690024
52800 313.22634135119841403
52900 317.00350737946820345
53000 306.38653082956267326
53100 299.99038179012256933
53200 302.28842632775223365
53300 312.31541641849941016
53400 310.06313312251973002
53500 302.09693520080929829
53600 300.30436001805054502
53700 328.38349212141980615
53800 311.0769534903097906
53900 304.03896320358393268
54000 295.13195342150982015
54100 311.02788674689179516
54200 319.04823532398899033
54300 301.61046912630939687
54400 299.14088336644056199
54500 312.05007743551118438
54600 330.4731016612829535
54700 302.17171432799329978
54800 303.27825367248209432
54900 315.57631008895077684
55000 304.97460979550481852
55100 311.34674100209798553
55200 327.1499093968986358
55300 299.19114997522825661
55400 299.6528947041086326
55500 311.36748559605837272
55600 303.38725722502721283
55700 319.39884180422927784
55800 313.92002797871191433
55900 300.25917747865815954
56000 304.856607219774844
56100 325.42445694833605785
56200 314.84109587472039493
56300 319.14940418463004335
56400 316.40806731634773996
56500 299.3719050490563518
56600 320.45460407625841981
56700 307.90928267289569931
56800 305.949188620809025
56900 334.61125824383037752
57000 308.71091129311764689
57100 307.69327906759878033
57200 301.98991135871654024
57300 304.7340292587617796
57400 307.84277951950957686
57500 317.20560836217953238
57600 319.83887120732168796
57700 326.32273476367413423
57800 300.75751095240849509
57900 325.44790238542964289
58000 312.77781416773922274
58100 307.71669871607821278
58200 314.14778186373774815
58300 300.45085530120360318
58400 318.75437896405662741
58500 308.21460450286946298
58600 309.33500917874675906
58700 325.18547026150861257
58800 313.04929673589089134
58900 305.63316796644210172
59000 316.3168196262227525
59100 316.18739424556270023
59200 315.80714516476439258
59300 313.99196891667537557
59400 294.9015236969049738
59500 311.08494721343538458
59600 296.76658169187146541
59700 311.31354446492355237
59800 305.0089065913119839
59900 296.94496883578756297
60000 322.04937031163041183
60100 305.86727691973982246
60200 307.12391455944856489
60300 304.99253276594356521
60400 318.70863443819115446
60500 305.82122755145189785
60600 306.00512754282596006
60700 317.59166958591777075
60800 294.7863435307511395
60900 317.45218031314522023
61000 308.12522464758501428
61100 318.87805581812864375
61200 318.43093937127633808
61300 294.39991184978720185
61400 314.06762037349716365
61500 325.35449338991224977
61600 303.56511282175489441
61700 311.24875488405899659
61800 310.41766417512906173
61900 311.58469803421996858
62000 304.0606096841900694
62100 292.07746232264651098
62200 312.08048079590071211
62300 307.49255612740790866
62400 310.37655152482051335
62500 325.30880482288995381
62600 302.12610537475137562
62700 310.20066053463750677
62800 318.92353867642236764
62900 322.93724077436127118
63000 316.51369234378086048
63100 302.9881743401479639
63200 319.53090503873517036
63300 322.16298473788145884
63400 322.16300288203512991
63500 310.63732078728861552
63600 304.10688274409136511
63700 302.94061467771354046
63800 313.0561900740145802
63900 317.14863082768573577
64000 328.42998504431096762
64100 295.50432479507043126
64200 322.04559495613995068
64300 309.31190325098697258
64400 314.20302738060087222
64500 317.17284078181472751
64600 310.88776609963082365
64700 301.85072989797163245
64800 302.0953903094292059
64900 313.07501363448312759
65000 321.96360170883701812
65100 322.33266003618973627
65200 304.54791322043655555
65300 307.34817977866447336
65400 311.88020258215510694
65500 312.90177816320255033
65600 327.23142277517729326
65700 311.42158708664925371
65800 301.26421226844831835
65900 301.5081737236825461
66000 313.12717683643137434
66100 338.27435327361149575
66200 301.94129512785156066
66300 302.69999014551171967
66400 319.05495633502187047
66500 322.15577926395985742
66600 294.55284222189590082
66700 309.11838979645091285
66800 311.67271202375189887
66900 304.84487161986686488
67000 305.55686791045428663
67100 309.71115560180356852
67200 312.04630329488145435
67300 327.91992668333676875
67400 320.91273584714264189
67500 301.98612196921527584
67600 306.39744691818640376
67700 307.15362494900602996
67800 324.48248399987386392
67900 301.76127741262297377
68000 318.99934195451510277
68100 323.43086691778665909
68200 304.37020026628493952
68300 317.6611801721444408
68400 313.07766879212385902
68500 312.79655610401283639
68600 309.8973907781729622
68700 318.71565249840318756
68800 318.33406315881745741
68900 317.32821347966159919
69000 320.6989794849675377
69100 327.29115036140569828
69200 298.15861986203401557
69300 310.97237388170509576
69400 320.86454022673115105
69500 319.91537665998373541
69600 322.22758767352416953
69700 300.00168947148358711
69800 308.03484410679817529
69900 316.73087070977294388
70000 318.28594835945165187
70100 312.52807212242970536
70200 302.28920630074514975
70300 303.61695583308380719
70400 315.67598192365335308
70500 311.48597829003466586
70600 313.0925435825246268
70700 309.08771751365850378
70800 314.24913920197388961
70900 318.20175271506059289
71000 315.80711878487511513
71100 298.32093588034257436
71200 300.80954946354916046
71300 315.60907204568997031
71400 322.85755255238012751
71500 327.19506949707454169
71600 314.56815808140970603
71700 315.23610820136468647
71800 304.89569273470146982
71900 303.91702391799771021
72000 314.47083767549355571
72100 310.27014398273558982
72200 309.66463520987650782
72300 307.21908201521523551
72400 289.46502008813826023
72500 309.68674732307579234
72600 307.96989187778990527
72700 296.43174567036714961
72800 297.76532246991985176
72900 310.08929807523935551
73000 308.25308426824523167
73100 316.06705171852678404
73200 301.57398466263600767
73300 304.08891906109920455
73400 299.86266456125360946
73500 312.31720874684737055
73600 314.26804301439989331
73700 322.80670729084289405
73800 322.27574209706017427
73900 301.39744761780633553
74000 312.39950001762309739
74100 308.0368977938272792
74200 317.29114336548548181
74300 323.45702297252569224
74400 322.03780212152713602
74500 302.13862407475636473
74600 321.87451135542943348
74700 312.68079081606623504
74800 309.16794661395744015
74900 304.69116565132640062
75000 308.08570286347463707
75100 310.05505439660169031
75200 318.71510216519743608
75300 292.0887659659564406
75400 306.4958849751589014
75500 311.6981748838016415
75600 311.40032152268440768
75700 298.1122575258626739
75800 322.83473274408976295
75900 319.23277418134517802
76000 296.16702139591518517
76100 310.56897481787245852
76200 329.97604863693703692
76300 320.36045408169763959
76400 304.98485414092232304
76500 312.18791664699421062
76600 326.22715645266168849
76700 321.654687384920976
76800 313.09115415493579349
76900 308.55762374238696566
77000 318.43868145428967864
77100 304.96920543890604449
77200 326.98016560381171303
77300 313.01761708076594459
77400 316.22001875368039236
77500 322.00018129981958737
77600 301.32222183559792938
77700 306.0434480363932721
77800 324.54561982001001752
77900 307.26282026831586336
78000 315.48029234698810797
78100 303.56431052795807091
78200 312.11284880887120607
78300 316.47300404960213882
78400 286.87863796398357863
78500 309.95180045813162906
78600 316.05094118674372794
78700 316.9152187962842504
78800 295.65774910627197869
78900 311.64805578183614898
79000 315.21658403789058411
79100 328.42012052324179194
79200 304.12579835423508712
79300 305.9615025427927435
79400 325.74396445313237791
79500 318.3726917596027306
79600 290.63732680916922391
79700 300.35207070425980191
79800 310.6286643234250846
79900 312.56321525911778281
80000 307.09593591163223891
80100 307.59774589499062358
80200 303.01001672958830113
80300 298.08059145956082148
80400 321.676125354660428
80500 332.63187833926741632
80600 316.36427338218351224
80700 314.66923475113588893
80800 308.51160657804774701
80900 301.00931196750087793
81000 317.08747595174378375
81100 327.72240748722344961
81200 296.95771889404318244
81300 308.04989759842618469
81400 306.95523838678070661
81500 308.77764940592783205
81600 299.83858828834502219
81700 309.70322582931095212
81800 304.74300928917489273
81900 310.39019021699135692
82000 314.13152109502686926
82100 307.09649608429594991
82200 311.7331463704658745
82300 298.34616863001332376
82400 308.54401130556669841
82500 310.49201120437834334
82600 324.34769883344085883
82700 309.5888090683213818
82800 305.52004937421276054
82900 307.27213677325477192
83000 311.56177084817136347
83100 307.66563242120656696
83200 304.80009654729269641
83300 292.58002108602181579
83400 314.48636024793506749
83500 313.83693778164183641
83600 318.25648345107424575
83700 307.3562563839132622
83800 308.37710678870462289
83900 311.54159315115555273
84000 299.52626122732499425
84100 315.71033241295219796
84200 308.42199970340908521
84300 319.50523226234537333
84400 305.45782590385874755
84500 315.41803477336566175
84600 305.01331016167034704
84700 310.2135808752052526
84800 294.64975827428986577
84900 304.44574470025247592
85000 316.18251346859591422
85100 299.56901180680284824
85200 321.88892949498159624
85300 305.33377979915297828
85400 294.41122464775259004
85500 294.70811153398670967
85600 308.73129679335198716
85700 316.61874719260265465
85800 316.25122646104216528
85900 308.07447604578169376
86000 305.44645755233608497
86100 298.25389732924401187
86200 313.76569167666195881
86300 315.79701466847325264
86400 311.48157647912285029
86500 305.66798201103767951
86600 326.39813576224054259
86700 313.02100490640930275
86800 311.9774224260369806
86900 311.39964425467894671
87000 313.28986067623725376
87100 310.1312484943639447
87200 303.64481643739708261
87300 300.11269661296381628
87400 300.39584948831407019
87500 304.74440744920968882
87600 298.71796787088715064
87700 313.72172974549533819
87800 319.1730954353455445
87900 312.7054606793557241
88000 304.84812245051421087
88100 306.56303880922064309
88200 324.26366666452400978
88300 321.2948594742991304
88400 327.62982145910865484
88500 313.55877591833393581
88600 317.6299584872248829
88700 306.89280908135054915
88800 302.65169859957336485
88900 299.93688948697706564
89000 304.79539362251557577
89100 312.42640366940264585
89200 302.69736274003588505
89300 317.68978909697773361
89400 313.44362761891812852
89500 303.61736030319838164
89600 302.89132329278675115
89700 316.17603000539224922
89800 306.00193957710695258
89900 295.31705282795957146
90000 308.32103859539836321
90100 311.07029443826610304
90200 328.93766474339327033
90300 318.23420950709879662
90400 310.1405661602113355
90500 302.83254683068980739
90600 304.80259735280731093
90700 303.60214536885206371
90800 316.01419273327809378
90900 313.04585181829361318
91000 306.35945217620036374
91100 297.95425166809064876
91200 306.49162567280683334
91300 312.68272636104711637
91400 323.33731573445635377
91500 313.40623767843925407
91600 324.58263815495155313
91700 310.8825678331314748
91800 296.54250928702884949
91900 314.29538419362688728
92000 316.05278232077336042
92100 298.00383608071308572
92200 297.8138181997682068
92300 309.75925423030935235
92400 323.78683909911200089
92500 321.09990211895416223
92600 312.29777944391275923
92700 334.33210920840753033
92800 301.0426025805151653
92900 321.6766942251774708
93000 318.71181949749080786
93100 308.36356786598679491
93200 304.90201271145258488
93300 332.03514083744448726
93400 310.4678874678342595
93500 321.40553583939998816
93600 307.66484590076089489
93700 325.08257354931083682
93800 321.22787496912491179
93900 309.84446456022516259
94000 314.34438660739647275
94100 311.42921543749230295
94200 300.92399012837870487
94300 325.02807508880829346
94400 314.4108226267394457
94500 326.95983998866552156
94600 298.45707933751396013
94700 295.630241305079835
94800 312.50467496600015238
94900 332.27879106243165097
95000 324.35869529468993733
95100 307.3193317590636866
95200 311.82811073335142282
95300 302.42340836005246274
95400 313.09904351688066981
95500 295.35171627770108671
95600 305.17722865466373605
95700 322.48482346025917877
95800 304.33770528532915023
95900 315.84410121247515235
96000 310.26461779306180233
96100 313.54587333104626623
96200 326.59127529145916924
96300 305.4676255784378327
96400 313.3840133942974262
96500 314.73151127962012197
96600 307.48142352985655634
96700 302.6188639264972835
96800 319.31930255386021145
96900 312.9482745672519286
97000 312.80375577444942792
97100 300.28948821359426802
97200 308.84218841388707233
97300 317.81076188615634237
97400 316.28424598262660083
97500 313.31592786879775758
97600 316.52149991584661848
97700 311.26061304076785063
97800 306.72239510247197813
97900 321.46644483351673216
98000 332.86532604325833518
98100 307.96992534814154396
98200 310.50616086737863952
98300 310.73871443812430471
98400 319.0605515195458679
98500 301.82385773507240856
98600 307.53877422171228773
98700 319.65299879645982628
98800 312.42700642367827868
98900 303.20893024922236236
99000 313.18402246947181311
99100 320.40174829595014216
99200 302.4905742593746254
99300 303.3236654317366856
99400 316.85147497748209844
99500 320.84763273416456286
99600 318.0144112080027412
99700 302.73895085818730877
99800 302.65100871576566988
99900 313.93996022837359305
100000 316.3422460842732562
Loop time of 14.7503 on 1 procs for 100000 steps with 840 atoms

# clear

# next dispRatio
# jump EndPointForceDisplacement.lammps
