variable totLength equal 893.3199
variable dispDist equal "v_totLength*v_dispRatio/2"
# Displacement distance is divided by two because I want to displace both the bow and stern atoms of each chain.

variable seed equal 1
units real
boundary p p p

atom_style molecular

region main block -2500 2500 -2500 2500 -2500 2500
create_box 32 main bond/types 31 angle/types 30 extra/bond/per/atom 2 extra/angle/per/atom 3 extra/special/per/atom 6
Created orthogonal box = (-2500 -2500 -2500) to (2500 2500 2500)
region insertionVolume block -1500 1500 -1500 1500 -1500 1500

molecule productionBeta productionBeta.txt
Read molecule template productionBeta:
  1 molecules
  0 fragments
  32 atoms with max type 32
  31 bonds with max type 31
  30 angles with max type 30
  0 dihedrals with max type 0
  0 impropers with max type 0
bond_style harmonic
angle_style harmonic
pair_style none

create_atoms 0 random 20 1 insertionVolume mol productionBeta 1 rotate 0 0 0 1
Created 640 atoms

# Load in Beta Spectrin Parameters:
read_data BetaCoeffs.data add merge
Reading data file ...
  orthogonal box = (-2500 -2500 -2500) to (2500 2500 2500)
Finding 1-2 1-3 1-4 neighbors ...
     2 = max # of 1-2 neighbors
     2 = max # of 1-3 neighbors
     4 = max # of 1-4 neighbors
    13 = max # of special neighbors

# Verify that parameters were assigned as intended:

group firstAtoms type 1
20 atoms in group firstAtoms
group lastAtoms type 32
20 atoms in group lastAtoms
displace_atoms firstAtoms move 0  379.6609575 0
Displacing atoms ...
displace_atoms lastAtoms move  0 -379.6609575 0
Displacing atoms ...

group internals type 2:31
600 atoms in group internals
group endpoints subtract all internals
40 atoms in group endpoints

write_dump all image images/min.0.85.before.png type type zoom 2 adiam 15.0 bond atom 5.0 size 1280 1280
# This is keep the endpoints stationary during minimization
fix stationary endpoints setforce 0.0 0.0 0.0
# Minimize the initial structure for initializing velocities
minimize 0.0 1.0e-9 100000 100000
Step          Temp          E_pair         E_mol          TotEng         Press
0   0              0              12842748       12842748      -5.0638973
Loop time of 1.35717 on 1 procs for 9749 steps with 640 atoms

Minimization stats:
  Stopping criterion = force tolerance
  Energy initial, next-to-last, final =
  Force two-norm initial, final = 15682.423 5.3853311e-10
  Force max component initial, final = 3497.5602 1.3108952e-10
  Final line search alpha, max atom move = 1 1.3108952e-10
  Iterations, force evaluations = 9749 10828

# Remove the stationary fix now the minimization is done
unfix stationary
write_dump all image images/min.0.85.post.png type type zoom 2 adiam 15.0 bond atom 5.0 size 1280 1280

reset_timestep 0

velocity internals create 310.0 1 dist gaussian

timestep 100
fix integrate internals nvt temp 310.0 310.0 $(25.0*dt)
fix integrate internals nvt temp 310.0 310.0 2500

compute internalsTemp internals temp
thermo 100
thermo_style custom step c_internalsTemp epair emol etotal press

# dump_modify coordsDump time yes sort id
# dump_modify thermoDump time yes thermo yes sort id

# dump_modify forceDump time yes thermo yes sort id

compute molChunks all chunk/atom molecule

group bowAtoms type 1
20 atoms in group bowAtoms
group sternAtoms type 32
20 atoms in group sternAtoms

compute bowComp bowAtoms property/atom fy
compute sternComp sternAtoms property/atom fy

run 0
Step     c_internalsTemp     E_pair         E_mol          TotEng         Press
0   310            0              2.9698728e-19  553.50662      0.00020241638
Loop time of 2e-06 on 1 procs for 0 steps with 640 atoms

velocity internals scale 310.0

fix printTemp internals print 100 "$(step) $(c_internalsTemp)" file out/internalsTemp.0.85.txt

variable netTension atom "c_bowComp - c_sternComp"

# Calculate, for every molecule individually, the net tension
fix tensions all ave/chunk 100 1 100 molChunks v_netTension norm none file out/tensions.0.85.txt

# Calculate the ensemble average of the net tensions
variable ensAvg equal ave(f_tensions[2])

# Time-average the ensemble average of the net tensions
# We will average over the 100 most recent timesteps in increments of 100 steps
fix timeAvg all ave/time 100 100 10000 v_ensAvg file out/timeAvg_tensions.0.85.txt

neighbor 10.0 bin

run 100000
0 310.00000000000005684
Step     c_internalsTemp     E_pair         E_mol          TotEng         Press
0   310            0              2.9698728e-19  553.50662      0.00020241638
100 309.83734095094450822
200 304.94057609142259935
300 313.7357132406175424
400 305.06666436418163357
500 307.98571954784938498
600 285.07627124298284116
700 321.48048991487058856
800 311.511918635886218
900 299.10972649270593138
1000 292.70432098787892983
1100 300.55539920665614773
1200 302.07412831926205854
1300 296.31761808744647624
1400 317.81561403637209651
1500 325.5262745743408459
1600 312.44905754749760263
1700 294.76478514920614771
1800 313.83645615565546905
1900 310.61422785876646913
2000 327.26401663427265021
2100 307.71687916483210756
2200 332.22844348843597118
2300 309.70258246779349065
2400 296.47888367804938525
2500 317.07319635330105712
2600 299.90657933279533154
2700 306.35571386505938563
2800 282.1093720523730326
2900 315.65856556742090788
3000 304.67066781433345568
3100 336.09362490364497944
3200 310.38538846556360795
3300 297.05183255711602897
3400 296.82171446805028836
3500 303.75194294257460115
3600 304.23176851496958761
3700 306.70354360352217782
3800 317.09156744342817547
3900 322.46235890326107665
4000 327.69668084828288102
4100 310.01196974620773972
4200 304.46354370706558257
4300 328.84232712002147991
4400 307.83204767912963007
4500 310.03062457128862661
4600 303.93598269442105675
4700 317.85875217032770479
4800 320.63944779463867008
4900 305.27839788629643181
5000 292.42556232714565567
5100 295.03258283415709684
5200 299.27196546317770753
5300 300.11532147282838423
5400 312.2515651687244258
5500 311.25101677719248983
5600 312.96421792735122835
5700 302.52819292581432364
5800 303.63497782089416432
5900 310.69427010818395729
6000 319.91188248285692453
6100 317.26462644806258595
6200 320.05090261796408413
6300 325.00017381107488745
6400 305.08473822521017382
6500 297.70612987026930796
6600 303.28089770134363334
6700 303.74467657835310774
6800 315.51147203403502317
6900 296.49698402975394629
7000 297.69311208562419324
7100 303.20794652047794671
7200 325.02327951500598147
7300 310.821719693179773
7400 308.98869673346524678
7500 325.68688648379549022
7600 322.74913520414054346
7700 284.19830685392457781
7800 295.66589646205079589
7900 300.72619472614479719
8000 317.56616151639531154
8100 309.34283630393139219
8200 317.52708213612277177
8300 329.27353236139072123
8400 298.75293143956508857
8500 298.54118207269959839
8600 304.92938564209742935
8700 324.66261688203866242
8800 327.11629883342772018
8900 286.31507658462567179
9000 307.1583328050480759
9100 307.52220503151067987
9200 327.40614789200293444
9300 300.46588406977190289
9400 318.87223760069718992
9500 325.00222218057797363
9600 309.5987035778733798
9700 307.09453493471249885
9800 310.92805943767558574
9900 306.16708471131352098
10000 310.06764339818954568
10100 312.13473787472941012
10200 315.26787760439583508
10300 316.04534606178481226
10400 310.7430300557599594
10500 310.76163639034592734
10600 293.51657505819821381
10700 330.62354489849809625
10800 321.66231403034959158
10900 322.63150765627909777
11000 304.06587170416287336
11100 305.66443134223203515
11200 304.78278408325957116
11300 307.20437626444328316
11400 305.75199495632693925
11500 316.0685729264495194
11600 322.82422856039562475
11700 328.56619401382704382
11800 334.4107711589867904
11900 314.11597400140334457
12000 302.29196835628391682
12100 312.7983831778029753
12200 308.0043288465403748
12300 298.23814275875520252
12400 281.85803329937846229
12500 299.65726846224112023
12600 318.48149466430010079
12700 322.23658342661553888
12800 334.30341633691824654
12900 313.80767296393963761
13000 298.48218734559975474
13100 323.33602122155440384
13200 310.96987986871226894
13300 319.89175883031538206
13400 330.1248629500593097
13500 325.7966090821147418
13600 288.76866690963259998
13700 292.74836137188151497
13800 288.59495146260519505
13900 305.81562031235699806
14000 307.97043844547471281
14100 332.3153712922466525
14200 311.89628882796392872
14300 296.28657376664409639
14400 323.3870842693984855
14500 313.49579730262286148
14600 316.41281341356614121
14700 281.89013212119181162
14800 311.01895721811689555
14900 303.0541009700284576
15000 291.41622369812108673
15100 303.28000974809407353
15200 309.46163163963103671
15300 330.80427379044846248
15400 321.53958391476953693
15500 303.70996112683803858
15600 305.21956463730970199
15700 300.20023334415179761
15800 302.14128879161495433
15900 315.690573276099542
16000 319.88428001116056976
16100 315.31128050616439396
16200 311.03742634633039188
16300 331.62346663036998962
16400 314.69152929784041817
16500 304.55582562198128471
16600 299.33688649353979372
16700 304.26001754168572688
16800 309.70725015571485983
16900 312.63634776242196267
17000 315.77505579662226864
17100 307.30728375841840716
17200 306.40624312019133413
17300 319.43710596795165202
17400 301.5346161291584508
17500 305.97291658619428745
17600 319.98095356832777725
17700 306.76590029500215451
17800 318.18560771612976623
17900 311.79195754924813855
18000 312.45105869019312195
18100 304.78638339153792458
18200 320.11369094922349632
18300 294.1036567014068055
18400 305.42288204056416134
18500 324.05534849638701189
18600 311.501038522802844
18700 321.4429058650114257
18800 327.77276785821533167
18900 311.43215505305187207
19000 323.26561744590122771
19100 317.18267578967333975
19200 293.89965919071778444
19300 299.04019209335064033
19400 299.21200734873593774
19500 297.86717163615219306
19600 307.3140563045997169
19700 315.71733665126288315
19800 301.36498634973241906
19900 320.11291295454685724
20000 317.25580242109822393
20100 313.54664638051036718
20200 317.25978194206970784
20300 320.46370810151967135
20400 324.77990517335632603
20500 301.92936947088145416
20600 303.13352682411857586
20700 330.26306914791751979
20800 308.91872780002614718
20900 287.25184119803151361
21000 303.1817680549146985
21100 312.46925403106922658
21200 323.48823264818850021
21300 293.18250021091580493
21400 303.8728051836811801
21500 308.49577598402652256
21600 299.07881084182622544
21700 308.63879912286859053
21800 299.38622769365565546
21900 294.77177569784072375
22000 288.71650554807683875
22100 325.03799963868755185
22200 302.94397243946315257
22300 303.32682891877493603
22400 308.28394253266486658
22500 309.42728798436348825
22600 313.4684494997268871
22700 300.60256089391509704
22800 317.92310713732899785
22900 307.04202343604060843
23000 294.56254785732414803
23100 301.46790580588378816
23200 310.32597263645914154
23300 319.88180642221914241
23400 307.8560923497397539
23500 294.81731627030512755
23600 311.98268543459460034
23700 317.94264159737269893
23800 315.88615615072222909
23900 297.75401907070681773
24000 307.07549591687279644
24100 291.37217263485621288
24200 313.69750470541657705
24300 321.42362595635984235
24400 300.39161141985556469
24500 297.77880076651234731
24600 299.27435395772795346
24700 298.88368810306172918
24800 314.17479477147952593
24900 316.76993271716628442
25000 307.6333471089383238
25100 322.65342251735614809
25200 322.59096576736254747
25300 305.94992994478525361
25400 304.05930716908642353
25500 323.21245330778015159
25600 307.49487103094850227
25700 316.33662073538147297
25800 310.0650964462197976
25900 294.86989240437026183
26000 302.96800101768684499
26100 310.28753906806974783
26200 319.88626249503141707
26300 312.35783676492184213
26400 301.93270231831832007
26500 310.46619653151799412
26600 308.46066215532295018
26700 328.4620070206946707
26800 318.72935018123899908
26900 297.06409043892199406
27000 303.81970574688818942
27100 314.00651023707263221
27200 315.1597662033931897
27300 308.73537684053985686
27400 285.77259788768560611
27500 305.49318153810094145
27600 294.15374767666395428
27700 304.18348904014834488
27800 312.19730554457186145
27900 325.89716142681771771
28000 309.94833826171020519
28100 303.28896959706565895
28200 312.83292538475615174
28300 310.68037933593979005
28400 313.1209672083454052
28500 307.42396526552664682
28600 319.10915834927936885
28700 298.80300770645095554
28800 321.67006719490944988
28900 334.13884914639385215
29000 306.08356650700227419
29100 306.83757942246484163
29200 295.59022254207860669
29300 306.11749719335881537
29400 309.17233839329202283
29500 325.37327832545298634
29600 313.00780315329956238
29700 314.39376653811751794
29800 320.48803369305181832
29900 288.97986482187889123
30000 302.51857526568517187
30100 308.6390031106693641
30200 342.27412769187776576
30300 309.36948589928323372
30400 307.73351268206221221
30500 303.11202608014724547
30600 299.15144065751638891
30700 311.18545417782928553
30800 320.92603839465175497
30900 294.46939703618409112
31000 295.53958331073499721
31100 299.16975243299310705
31200 292.64067108148731222
31300 310.50561893446985096
31400 295.98956870777777795
31500 317.01381718243231944
31600 328.16464935916485501
31700 315.04523539441009916
31800 304.64285190608609355
31900 322.20384416894603419
32000 309.48691973521789578
32100 305.60101698355100552
32200 300.16137937268837277
32300 302.65581071898225218
32400 328.73316197433786101
32500 300.41526309569883324
32600 294.10163722489176052
32700 301.89173085994053736
32800 307.6021121813615764
32900 311.50008568949488108
33000 292.5057934253111398
33100 305.80765816500718302
33200 307.08221493281666881
33300 302.27649489122109117
33400 306.49018699553295164
33500 324.79423705896709862
33600 307.15562694368821894
33700 309.72865556262286191
33800 313.49883289942783904
33900 321.49549646413521486
34000 304.51522796428787387
34100 300.22811751229482979
34200 295.18455497928221121
34300 304.10170496443259935
34400 320.33728630142707061
34500 320.23481954412443429
34600 317.39714675398687405
34700 299.97728680600971529
34800 303.38555525115566525
34900 301.8489850388085074
35000 318.00665900391931018
35100 303.34551951163530248
35200 316.24718046006182703
35300 304.80713842455486429
35400 328.44639171567001767
35500 304.82638696199444439
35600 323.62393813498476902
35700 338.85317214614326531
35800 305.30618698033129021
35900 305.7932720913116782
36000 307.70802730434854766
36100 293.7754012402554622
36200 299.69626444653465569
36300 295.6815662794454056
36400 324.67694752474193365
36500 321.24394614602897491
36600 309.35590603785055919
36700 316.60181412272339685
36800 319.51299696144934614
36900 320.16378963405099967
37000 312.35908731967151652
37100 293.46078305835169431
37200 315.63757892139636851
37300 293.93093937674638028
37400 299.72698863467792307
37500 320.64222593388234372
37600 316.72432266377961696
37700 318.69002124654906538
37800 318.87027568959859991
37900 311.62236086948121283
38000 301.88004976702467275
38100 300.50815437402144426
38200 296.31084959397753664
38300 301.1184614532788828
38400 303.6496266543685465
38500 332.10476680521423987
38600 326.35082715317525981
38700 308.62386024713561028
38800 316.81906071306161721
38900 315.40042638292874244
39000 322.31440252967956894
39100 306.78209886174772691
39200 292.65812818722412203
39300 287.90329070062506389
39400 308.45919379971132912
39500 313.42839514032533543
39600 314.09762346635329777
39700 306.54547958207859892
39800 312.60020461173894546
39900 304.88370058769845627
40000 297.82134694668496877
40100 324.43046134231030919
40200 303.02726882656827456
40300 307.54319142162398748
40400 292.05542112849639125
40500 308.75457097941830398
40600 305.98364537211824654
40700 300.198257774042645
40800 318.65248998699956928
40900 310.79435046182055657
41000 314.39057842777503993
41100 334.42119333693329963
41200 305.16765898055263051
41300 302.89989946359025907
41400 302.87465635742870518
41500 300.61129561164375446
41600 312.25965722168297134
41700 312.93406883642188632
41800 294.42143466723155143
41900 301.52697392705357515
42000 313.52510432927010697
42100 323.8753425064617204
42200 315.37744642599795952
42300 302.04452359083501278
42400 315.49193773159834109
42500 305.90189967025122542
42600 315.6271551918238174
42700 301.16544341760163661
42800 310.8846630659454604
42900 320.69190651102326228
43000 313.85647601938711659
43100 333.40953618627793276
43200 320.02544165450086666
43300 302.38126328715190994
43400 288.79653884711296996
43500 309.96924068400846863
43600 310.39369501390859796
43700 298.76875266470142378
43800 307.95822694231532068
43900 310.71775248697974803
44000 322.91234903445098325
44100 314.97293074226217868
44200 309.0067054486729603
44300 313.95494007864419928
44400 302.71871137786399686
44500 304.14027861483418747
44600 306.00179013828324059
44700 289.51092491409366403
44800 314.90486121359782601
44900 312.10914173360413315
45000 301.94428470724511726
45100 302.39199715001370805
45200 303.16994065186730722
45300 297.17308361376575476
45400 297.9617713520803477
45500 316.64574816242952693
45600 320.85337191694435433
45700 308.20741010546282723
45800 324.60381268604163552
45900 308.7551068118810349
46000 313.41365997266899512
46100 327.83835577221651647
46200 312.6496517434808311
46300 309.49211262796865185
46400 298.86429250414636272
46500 337.69621839039484712
46600 287.60821383718166544
46700 305.85202067960966588
46800 319.18086971557852394
46900 300.81080170217484238
47000 309.33183853172619138
47100 314.66498049889622735
47200 298.58886423275714606
47300 307.78529487354188632
47400 288.37865194470339247
47500 314.54975510289801832
47600 324.10658226876387289
47700 318.56783955464635483
47800 310.06839035770059354
47900 309.88687657389374408
48000 309.37562353634757528
48100 318.4598704114404768
48200 318.09648693633471339
48300 292.17880623213716262
48400 306.71545295387562646
48500 325.01507237387261284
48600 311.54095941215121002
48700 308.40446225945117931
48800 314.73444503128109773
48900 301.85015593386680166
49000 325.76652916837286966
49100 313.72300946379880315
49200 304.93024885522436307
49300 303.8161534905656822
49400 321.59752911625457727
49500 332.4636978062458752
49600 311.47832074323883944
49700 320.44156205945540705
49800 308.69127109632347583
49900 304.45392065630522893
50000 295.30535310067233468
50100 304.37371080494256148
50200 322.37747470674207761
50300 311.86043309938315815
50400 315.52670168400726425
50500 307.78267551858215256
50600 282.11126533553374429
50700 307.13365435897111411
50800 325.60788905804901106
50900 320.52763544645773663
51000 291.35902097526229682
51100 306.11736880374428438
51200 298.73144859075637214
51300 316.51279883314754215
51400 321.92552069253122227
51500 311.86470220280619969
51600 316.31136840750264128
51700 306.5632992829062573
51800 322.6229914851235776
51900 311.34249741600342531
52000 311.27102847524088247
52100 301.63421720447053076
52200 293.59912364243706406
52300 317.07918040089970191
52400 306.06134599261196172
52500 301.41347686254664495
52600 296.8479629095768928
52700 305.56432260256133304
52800 321.27686941891630568
52900 326.14620864884773255
53000 325.46325536326185102
53100 310.31264598317739001
53200 292.95499895358324238
53300 317.94301245835674763
53400 306.09004606058681475
53500 319.2533827211047992
53600 300.5609954291617214
53700 302.01455553407197385
53800 313.50320395541893959
53900 289.60834066068474613
54000 311.94318678378698451
54100 301.60561673896643242
54200 291.21543607858671976
54300 321.30344513192613931
54400 333.91691905139163055
54500 321.1272164538497691
54600 304.06290154222318733
54700 303.64173376678343175
54800 293.32925746071106232
54900 326.93405530042747387
55000 313.08653450392688455
55100 324.67379290586359275
55200 285.52227632326588491
55300 295.65879217904858933
55400 314.95617399289398008
55500 306.63113594135268158
55600 325.88117037063994985
55700 316.95320914596067041
55800 313.58160315697762144
55900 326.79483157547349492
56000 306.78171534078234117
56100 300.54763307466578226
56200 302.9899077617334342
56300 305.4352970196350725
56400 312.63299494952229907
56500 319.32458908738516357
56600 309.11327155662934274
56700 324.02324021510401053
56800 310.32611754371384905
56900 307.45250770454623535
57000 311.5451658365262233
57100 302.90118171069360642
57200 305.73453149132569706
57300 310.84206494099083784
57400 316.9615975962190646
57500 322.23701537174321174
57600 316.53070728738475736
57700 304.18440054247048465
57800 311.93347653719757773
57900 292.54762012487157108
58000 296.56581348701661227
58100 315.9570673498823794
58200 307.24307751170476877
58300 301.4557425179706911
58400 310.96970342122938291
58500 321.85206639724810884
58600 333.83370802236817099
58700 298.96588700882341527
58800 293.70718735614815387
58900 326.68057930776035391
59000 314.95094698753723605
59100 308.17589686414891048
59200 303.12209749035775985
59300 295.89266618951830878
59400 314.91142881290608102
59500 306.45824147056413267
59600 315.07901076771327098
59700 321.64758374326515877
59800 314.29375726287429416
59900 300.31310697564703105
60000 293.99602543617749006
60100 321.06617620985093708
60200 321.54010009480202825
60300 313.34645689138466196
60400 307.61446437040171986
60500 313.02420643388143162
60600 326.53528815449868716
60700 311.85157728513019038
60800 303.08555672389820757
60900 291.86549358556578682
61000 304.90262431927789066
61100 318.49674440517787843
61200 336.47969866934602123
61300 309.17208507823482933
61400 292.79688715059410242
61500 292.67681788534503085
61600 300.74306569229980823
61700 304.77393545993055568
61800 313.11922497246024477
61900 296.01026889034858414
62000 309.79652450648546846
62100 317.90080960729704884
62200 296.0598557785993421
62300 303.63552448743610057
62400 293.15756275588825019
62500 321.15706099384181016
62600 322.77998977294834049
62700 317.87529711710709535
62800 312.28504698329112443
62900 299.02068770773814776
63000 300.84427846728891609
63100 317.23428885103191988
63200 306.49875255092797488
63300 321.32724708498636801
63400 308.83226004348432525
63500 317.65469378591581062
63600 314.11622371167953816
63700 317.31619107579302863
63800 332.44716670334992159
63900 301.90760797231052948
64000 307.18454604255191498
64100 319.03247516703839892
64200 313.55884474955161068
64300 306.50200081668316443
64400 300.80063537669758489
64500 316.5434429874985085
64600 332.89627334891423516
64700 302.01100244454602262
64800 326.78322429560688533
64900 306.48843703666210558
65000 318.80904725072906558
65100 297.18858689683861485
65200 301.42762731531337295
65300 315.20146340492317449
65400 326.88610179424381386
65500 314.74195572525070475
65600 297.67956586822185727
65700 337.18633884399201861
65800 303.39355030077047104
65900 309.72435345285441599
66000 308.40076761497653024
66100 299.12692923607278317
66200 292.49989785947974497
66300 301.19526503100877335
66400 336.61928157909375159
66500 322.76691596474591961
66600 317.75729593493957736
66700 308.43749863895334329
66800 314.57637636964113881
66900 293.29706259553410064
67000 303.46089846216409569
67100 301.76815898571777552
67200 326.11994400389471593
67300 315.44769678811991298
67400 311.49750557807493578
67500 302.52078495341777398
67600 317.92927615188972368
67700 303.35433226407383245
67800 316.11315654468967296
67900 327.12534895283266678
68000 311.62904238841389315
68100 297.67844965545873492
68200 295.6279848539862769
68300 309.20639639024739154
68400 299.6067631858007303
68500 301.85963727039637661
68600 323.69344708741357408
68700 317.53158422826260221
68800 316.28485125569704906
68900 309.31168144807003273
69000 296.91210027928372028
69100 313.59182287576425097
69200 311.81973697505048904
69300 310.52677683254233898
69400 317.3069141601521892
69500 324.9853046905528231
69600 317.93937402732672126
69700 300.16197988702339217
69800 294.1175368440237321
69900 313.17264551955770457
70000 313.69037283145831907
70100 332.72821805004485896
70200 303.11102980447111577
70300 312.63180415493360442
70400 314.46425535847703259
70500 320.65291829471931351
70600 308.89967298960613107
70700 319.69000626882279903
70800 307.68523945768419026
70900 297.56481801666365072
71000 320.88953317155403511
71100 313.76671672638246946
71200 318.96131547410851681
71300 326.21444073200933644
71400 310.35171380095243876
71500 301.30104863105100321
71600 318.37744614089956485
71700 334.13064843321166109
71800 301.91636268885781647
71900 313.1923647478677708
72000 302.69921604234372126
72100 298.93981482934822225
72200 325.11459103231186418
72300 335.24606949965561853
72400 322.66346289333421282
72500 309.5225117024522774
72600 287.30757767372233502
72700 290.35955551853498946
72800 320.59896574434662853
72900 304.23772167717743287
73000 302.45737716432046227
73100 309.71979314365802338
73200 311.27834541979416372
73300 311.39866074357445314
73400 305.55557499499116147
73500 304.9815839288078223
73600 304.0940374532193573
73700 350.98672432670514354
73800 316.73886298128383032
73900 305.15192887256648646
74000 296.84196268443935196
74100 309.25669566272796374
74200 324.07000913516304763
74300 309.60216936890020634
74400 323.75009093778447777
74500 328.54851030998014494
74600 308.18581542211387614
74700 313.91457561790690534
74800 326.98275528152612424
74900 316.94864636985857942
75000 315.63933846142214179
75100 307.71811439053828963
75200 322.57853484405575273
75300 334.18400025252390151
75400 315.55082159742681824
75500 314.60060645874011698
75600 296.02744783351931801
75700 312.2271798321071401
75800 304.12211266401067178
75900 311.97740075132611537
76000 330.81961594406550375
76100 309.64383819126652497
76200 302.47850660926752653
76300 298.7209990798577337
76400 309.52220042931844546
76500 306.23788424400152053
76600 306.65788803586394806
76700 302.59977650897553758
76800 318.2547907843061239
76900 297.89220878493756572
77000 313.60404131711624132
77100 303.99788876379250269
77200 325.48875280816923805
77300 328.97147577586400757
77400 300.64058255703935174
77500 304.7726089754794998
77600 291.78033841811935645
77700 300.30528530634398976
77800 306.76677680801657289
77900 320.0922914067953684
78000 316.90625709777862085
78100 303.0536308870269977
78200 307.07505693440617733
78300 309.16830485826432096
78400 303.45514733467791757
78500 309.47591986525566199
78600 302.3087873472558158
78700 306.74342378930151654
78800 319.05966354518557182
78900 307.29321554696156227
79000 300.59106726410124111
79100 307.94588758331019562
79200 313.08133180991018207
79300 321.06866613777833663
79400 300.81311170405393796
79500 315.98407232575374337
79600 304.3422231851263291
79700 298.61053131553705953
79800 296.10661791969886281
79900 312.0447725773167349
80000 312.83982275384295235
80100 297.80674445446203435
80200 308.44972410901169724
80300 308.29653852031151473
80400 306.64170445638688989
80500 315.32628553803345994
80600 320.45445639417658867
80700 307.63709270557774289
80800 299.93060256646350581
80900 314.48707725883764397
81000 310.99490975226638056
81100 318.27731069814961984
81200 301.56224572235498727
81300 330.18194642701331531
81400 311.71676910683015649
81500 330.68258607020771933
81600 325.04106866267699161
81700 305.12947638880609702
81800 303.06324830729994346
81900 314.03236462861895006
82000 309.24890085139463736
82100 314.54926122827873769
82200 309.28576153074942567
82300 335.53300782390004997
82400 306.96257594672198366
82500 307.52677561169696219
82600 319.63079978743422771
82700 308.7974655839600473
82800 312.03234561507673561
82900 300.77564370324779475
83000 310.48059554521961445
83100 295.57190941515460736
83200 300.17092901487137624
83300 332.37333541020700522
83400 318.47473743319125106
83500 300.10753583729382399
83600 311.10230496163143243
83700 320.91058881218737042
83800 320.32722394382545872
83900 330.42588340982359796
84000 320.1731099379552461
84100 312.57884020445231954
84200 305.51553645045265739
84300 294.91502235977895907
84400 317.74507199655243994
84500 317.34592526384386701
84600 309.42849770162649747
84700 296.8173988313811833
84800 302.68308710878727652
84900 317.40910147124776586
85000 301.76451617891478918
85100 306.74380245758629826
85200 317.46434435485105041
85300 299.22107833124834997
85400 313.13868813691851756
85500 301.58464292395700568
85600 306.968300815255418
85700 316.83810684751256304
85800 322.92999096681523952
85900 309.40154283337687957
86000 296.57644187431026239
86100 324.70425024591651209
86200 326.26873771519319689
86300 307.30905943594819973
86400 296.52940603262078412
86500 312.07243092914814042
86600 323.75755003170962709
86700 314.12117681512557965
86800 298.00278100359759037
86900 326.33063296042030288
87000 305.14786917530886967
87100 303.53334271501245212
87200 315.83643475853710925
87300 310.49676645200679559
87400 323.54291539305040715
87500 321.31863619121804732
87600 317.2035975713802145
87700 315.57542845178136304
87800 307.77979844426414502
87900 319.35003851294868582
88000 301.62774515698191635
88100 304.52734104073692833
88200 319.21502057605624714
88300 315.42264263522048395
88400 300.63325674548929101
88500 301.76501908187145773
88600 310.51829258880991347
88700 313.80173581546966943
88800 291.35833200033783896
88900 313.39610036849558128
89000 295.2950510615788744
89100 316.57280208588611004
89200 318.05925592430293136
89300 318.30179908006607548
89400 287.09177441260118258
89500 313.41321886886055381
89600 317.32133025181957464
89700 310.82248480062008866
89800 302.72428043001093556
89900 322.79337390357750337
90000 317.67798668390963712
90100 287.46257286505397133
90200 330.7845339029280467
90300 320.01928485755900056
90400 308.75919156052782455
90500 300.71468999265334787
90600 308.39290892628434904
90700 311.71176937290846354
90800 318.28032042604610297
90900 291.28022062145646487
91000 302.97070579889515329
91100 318.09791058427401822
91200 292.85841224230227908
91300 306.19442825504717121
91400 312.16192430121151347
91500 334.78561419027630564
91600 318.65592630601247492
91700 306.72002431479307916
91800 297.02037305254151534
91900 306.39812375553503898
92000 308.83993242864505646
92100 310.75155616672668657
92200 324.61616054777482532
92300 312.9046622753114093
92400 304.63467342398473647
92500 311.78285540580395718
92600 306.31365010398087634
92700 323.95479562167940912
92800 311.99890987022280342
92900 319.52470790251339849
93000 332.70529909562117155
93100 303.7113625659243894
93200 302.30539851679151298
93300 322.68971267666199765
93400 298.82247673446096314
93500 323.54347151484063261
93600 305.56019096932845969
93700 308.65503858054916009
93800 310.41276139233650611
93900 298.30950623318386761
94000 307.56395488387590831
94100 322.12831935051099208
94200 310.31533091273462333
94300 302.08352170969908457
94400 307.78624996824311211
94500 328.35918314708698063
94600 318.67699768633667645
94700 295.85792444547132618
94800 318.00195244329603383
94900 299.63503291959534636
95000 321.31889170553137092
95100 304.96057276671461977
95200 299.58194532271693333
95300 313.1339621515487579
95400 317.22928763525089835
95500 316.12918687349736047
95600 310.819900000477503
95700 317.53889579369973717
95800 285.40947200041995302
95900 317.18640582653631554
96000 306.35860714968316643
96100 304.49218164555173871
96200 298.64694706205779084
96300 314.07305688662592047
96400 312.91877537030921985
96500 305.000804623226486
96600 288.95479756468529331
96700 304.49695117725036653
96800 316.4878339099032587
96900 305.99331226663377947
97000 303.08805705368820327
97100 283.56848230077332573
97200 312.42804781884194654
97300 299.00505302828224785
97400 316.1119757816843503
97500 302.51344330741716249
97600 302.62103950342299186
97700 315.49179903862324181
97800 308.17305188160077023
97900 340.95016171813574601
98000 306.24110140917088074
98100 321.22119041957409991
98200 300.89646549068322656
98300 306.10654568910001672
98400 317.18869333459667814
98500 312.85352917562642006
98600 307.50578764180966118
98700 296.38902246781049143
98800 317.92844663079358725
98900 295.05654034357030469
99000 310.46661083354280208
99100 323.49249311714555688
99200 309.3481389814475051
99300 291.62202920722160115
99400 296.50125351528453166
99500 306.04651683728104672
99600 307.44356268782109964
99700 320.72423649319671313
99800 316.86569857351253177
99900 311.48489834059819259
100000 294.56078930258803439
Loop time of 11.4937 on 1 procs for 100000 steps with 640 atoms

# clear

# next dispRatio
# jump EndPointForceDisplacement.lammps
